
**** 08/24/21 16:08:41 ****** PSpice Lite (October 2012) ****** ID# 10813 ****

 ** Profile: "SCHEMATIC1-derivador"  [ C:\Users\daxda\OneDrive\Documentos\Universidad\Dispositivos electronicos\laboratorios\lab3_218


 ****     CIRCUIT DESCRIPTION


******************************************************************************




** Creating circuit file "derivador.cir" 
** WARNING: THIS AUTOMATICALLY GENERATED FILE MAY BE OVERWRITTEN BY SUBSEQUENT SIMULATIONS

*Libraries: 
* Profile Libraries :
* Local Libraries :
.LIB "D:/Programas/universidad/orcad/tools/capture/library/pspice/nat_semi.lib" 
* From [PSPICE NETLIST] section of C:\Users\daxda\AppData\Roaming\SPB_16.6\cdssetup\OrCAD_PSpice/16.6.0/PSpice.ini file:
.lib "nomd.lib" 

*Analysis directives: 
.TRAN  0 6ms 3m 0.1u 
.OPTIONS ADVCONV
.PROBE64 V(alias(*)) I(alias(*)) W(alias(*)) D(alias(*)) NOISE(alias(*)) 
.INC "..\SCHEMATIC1.net" 



**** INCLUDING SCHEMATIC1.net ****
* source LAB3
R_R1         VIN N14988  987 TC=0,0 
R_R2         N14988 VOUT  197k TC=0,0 
C_C1         N14988 VOUT  184nF  TC=0,0 
V_V1         VIN 0  
+PULSE 3.52V -3.52V 1u 1u 1u 420u 930u
V_V2         0 VEE 9Vdc
V_V3         VCC 0 9Vdc
R_R3         N19246 VOUT2  33k TC=0,0 
R_R4         N19622 N19246  987 TC=0,0 
C_C2         VIN2 N19622  184nF  TC=0,0 
X_U6A         0 N14988 VCC VEE VOUT LF353/NS
X_U6B         0 N19246 VCC VEE VOUT2 LF353/NS
V_V4         VIN2 0  
+PULSE 3.68 -3.68 1u 420u 420u 420u 930u

**** RESUMING derivador.cir ****
.END

**** 08/24/21 16:08:41 ****** PSpice Lite (October 2012) ****** ID# 10813 ****

 ** Profile: "SCHEMATIC1-derivador"  [ C:\Users\daxda\OneDrive\Documentos\Universidad\Dispositivos electronicos\laboratorios\lab3_218


 ****     Diode MODEL PARAMETERS


******************************************************************************




               X_U6A.DX        X_U6B.DX        
          IS    1.000000E-15    1.000000E-15 


**** 08/24/21 16:08:41 ****** PSpice Lite (October 2012) ****** ID# 10813 ****

 ** Profile: "SCHEMATIC1-derivador"  [ C:\Users\daxda\OneDrive\Documentos\Universidad\Dispositivos electronicos\laboratorios\lab3_218


 ****     Junction FET MODEL PARAMETERS


******************************************************************************




               X_U6A.JX        X_U6B.JX        
               PJF             PJF             
         VTO   -2              -2            
        BETA   12.500000E-06   12.500000E-06 
          IS   50.000000E-12   50.000000E-12 


WARNING(ORPSIM-15452): Pulse Period < (Rise Time + Fall Time + Pulse Width) for V_V4.

WARNING(ORPSIM-15452): Pulse Period < (Rise Time + Fall Time + Pulse Width) for V_V4.

**** 08/24/21 16:08:41 ****** PSpice Lite (October 2012) ****** ID# 10813 ****

 ** Profile: "SCHEMATIC1-derivador"  [ C:\Users\daxda\OneDrive\Documentos\Universidad\Dispositivos electronicos\laboratorios\lab3_218


 ****     INITIAL TRANSIENT SOLUTION       TEMPERATURE =   27.000 DEG C


******************************************************************************



 NODE   VOLTAGE     NODE   VOLTAGE     NODE   VOLTAGE     NODE   VOLTAGE


(  VCC)    9.0000  (  VEE)   -9.0000  (  VIN)    3.5200  ( VIN2)    3.6800      

( VOUT)   -7.5909  (VOUT2)     .0050  (N14988)    3.4646 (N19246)     .0050     

(N19622)     .0050 (X_U6A.3)    1.7323                   (X_U6A.4)     .3502    

(X_U6A.5)   -9.0000                   (X_U6A.6)   -7.6250                       

(X_U6A.7)     .0050                   (X_U6A.8)    6.8700                       

(X_U6A.9)   -7.5929                   (X_U6B.3)     .0025                       

(X_U6B.4)     .0050                   (X_U6B.5)   -8.0000                       

(X_U6B.6)   -8.0000                   (X_U6B.7)     .0050                       

(X_U6B.8)    6.8700                   (X_U6B.9)     .0050                       

(X_U6A.10)   -6.8700                  (X_U6A.11)   -7.5929                      

(X_U6A.15)   -7.5929                  (X_U6A.16) 17.32E-06                      

(X_U6A.17)    0.0000                  (X_U6A.21)    9.0000                      

(X_U6A.23)    8.3598                  (X_U6A.24)   -7.4909                      

(X_U6A.25)   -7.6909                  (X_U6A.26)   -7.5929                      

(X_U6A.27)   -7.5929                  (X_U6A.49)    0.0000                      

(X_U6A.98)    0.0000                  (X_U6B.10)   -6.8700                      

(X_U6B.11)     .0050                  (X_U6B.15)     .0050                      

(X_U6B.16) 25.00E-09                  (X_U6B.17)    0.0000                      

(X_U6B.21)    9.0000                  (X_U6B.23)    9.2927                      

(X_U6B.24)     .1050                  (X_U6B.25)    -.0950                      

(X_U6B.26)     .0050                  (X_U6B.27)     .0050                      

(X_U6B.49)    0.0000                  (X_U6B.98)    0.0000                  




    VOLTAGE SOURCE CURRENTS
    NAME         CURRENT

    V_V1        -5.612E-05
    V_V2        -2.610E-03
    V_V3        -2.585E-03
    V_V4         0.000E+00
    X_U6A.V2     1.446E-11
    X_U6A.V3    -1.375E-03
    X_U6A.VA3    0.000E+00
    X_U6A.VA7    5.612E-05
    X_U6A.VA8   -5.612E-05
    X_U6A.V5    -9.903E-14
    X_U6A.V4    -1.029E-13
    X_U6B.V2     6.866E-12
    X_U6B.V3     6.876E-12
    X_U6B.VA3    0.000E+00
    X_U6B.VA7   -2.937E-13
    X_U6B.VA8    8.221E-11
    X_U6B.V5    -1.010E-13
    X_U6B.V4    -1.010E-13

    TOTAL POWER DISSIPATION   4.99E-02  WATTS

Reducing minimum delta to make the circuit converge.
Reducing minimum delta to make the circuit converge.
Reducing minimum delta to make the circuit converge.
Reducing minimum delta to make the circuit converge.

ERROR(ORPSIM-15138): Convergence problem in transient analysis at Time =  3.721E-03.
         Time step =  101.0E-21, minimum allowable step size =  1.000E-18

  These voltages failed to converge:

    V(N14988)                 =     2.076V  \     2.092V
    V(VOUT)                   =    -7.558V  \    -7.542V
    V(X_U6A.3)                =     1.038V  \     1.046V
    V(X_U6A.4)                =    -80.91V  \   501.41mV
    V(X_U6A.5)                =    -16.88V  \    -8.971V
    V(X_U6A.6)                =    -15.53V  \    -7.614V
    V(X_U6A.7)                =    -81.95V  \   157.94mV
    V(X_U6A.16)               =    -81.96V  \   152.94mV
    V(X_U6A.17)               =    -81.96V  \   152.93mV
    V(X_U6A.23)               =     8.284V  \     8.276V
    V(X_U6A.25)               =    -7.658V  \    -7.642V
    V(X_U6A.24)               =    -7.458V  \    -7.442V

  These supply currents failed to converge:

    I(X_U6A.EOS)              =   820.54uA  \    29.26uA
    I(X_U6A.E1)               =  -978.08uA  \   -1.447mA
    I(V_V1)                   =   -1.463mA  \   -1.446mA
    I(V_V2)                   =   -2.729mA  \   -3.989mA
    I(V_V4)                   =         0A  \    96.32uA
    I(X_U6A.VA3)              =   -59.61nA  \  -465.66pA
    I(X_U6A.VA7)              =   978.08uA  \    1.447mA
    I(X_U6A.VA8)              =  -978.08uA  \   -1.447mA
    I(X_U6A.V5)               =  -316.31uA  \   -1.592uA
    I(X_U6B.VA3)              =    8.702uA  \    8.741uA

  These devices failed to converge:
    X_U6A.D5  X_U6B.F1  X_U6A.J1  X_U6A.J2  

ERROR(ORPSIM-15659): Discontinuing simulation due to convergence problem



  Last node voltages tried were:

 NODE   VOLTAGE     NODE   VOLTAGE     NODE   VOLTAGE     NODE   VOLTAGE


(  VCC)    9.0000  (  VEE)   -9.0000  (  VIN)    3.5200  ( VIN2)    3.6800      

( VOUT)   -7.5583  (VOUT2)    7.5476  (N14988)    2.0760 (N19246)    5.3893     

(N19622)    5.2939 (X_U6A.3)    1.0380                   (X_U6A.4)  -80.9100    

(X_U6A.5)  -16.8840                   (X_U6A.6)  -15.5270                       

(X_U6A.7)  -81.9530                   (X_U6A.8)    6.8700                       

(X_U6A.9)   -7.5926                   (X_U6B.3)    2.6947                       

(X_U6B.4)    5.7345                   (X_U6B.5)   -8.1778                       

(X_U6B.6)   -8.4472                   (X_U6B.7)    8.0817                       

(X_U6B.8)    6.8700                   (X_U6B.9)    7.5499                       

(X_U6A.10)   -6.8700                  (X_U6A.11)   -7.5926                      

(X_U6A.15)   -7.5926                  (X_U6A.16)  -81.9580                      

(X_U6A.17)  -81.9580                  (X_U6A.21)    9.0000                      

(X_U6A.23)    8.2842                  (X_U6A.24)   -7.4583                      

(X_U6A.25)   -7.6583                  (X_U6A.26)   -7.5926                      

(X_U6A.27)   -7.5926                  (X_U6A.49)    0.0000                      

(X_U6A.98)    0.0000                  (X_U6B.10)   -6.8700                      

(X_U6B.11)    7.5499                  (X_U6B.15)    7.5499                      

(X_U6B.16)    8.0767                  (X_U6B.17)    8.0766                      

(X_U6B.21)    9.0000                  (X_U6B.23)    9.6441                      

(X_U6B.24)    7.6476                  (X_U6B.25)    7.4476                      

(X_U6B.26)    7.5499                  (X_U6B.27)    7.5499                      

(X_U6B.49)    0.0000                  (X_U6B.98)    0.0000                  


**** Interrupt ****
