
**** 09/07/21 15:11:23 ****** PSpice Lite (October 2012) ****** ID# 10813 ****

 ** Profile: "SCHEMATIC1-lab5_1"  [ C:\Users\daxda\OneDrive\Documentos\Universidad\Dispositivos electronicos\laboratorios\lab5_218038


 ****     CIRCUIT DESCRIPTION


******************************************************************************




** Creating circuit file "lab5_1.cir" 
** WARNING: THIS AUTOMATICALLY GENERATED FILE MAY BE OVERWRITTEN BY SUBSEQUENT SIMULATIONS

*Libraries: 
* Profile Libraries :
* Local Libraries :
.LIB "../../../lab5_2180389_b02-pspicefiles/lab5_2180389_b02.lib" 
* From [PSPICE NETLIST] section of C:\Users\daxda\AppData\Roaming\SPB_16.6\cdssetup\OrCAD_PSpice/16.6.0/PSpice.ini file:
.lib "nomd.lib" 

*Analysis directives: 
.DC LIN V_V1 0.45 12 0.1 
.OPTIONS ADVCONV
.PROBE64 V(alias(*)) I(alias(*)) W(alias(*)) D(alias(*)) NOISE(alias(*)) 
.INC "..\SCHEMATIC1.net" 



**** INCLUDING SCHEMATIC1.net ****
* source LAB5_2180389_B02
R_R1         N14381 VD  98.4 TC=0,0 
D_D2         VD 0 Dbreak 
V_V1         N14381 0 12Vdc
V_V2         N14927 0 12Vdc
V_V3         0 N14891 12Vdc
R_R2         N14927 N14880  1.2k TC=0,0 
R_R3         N14887 N14891  12k TC=0,0 
D_D3         0 N14880 Dbreak 
D_D4         N14880 N14887 Dbreak 
R_R4         N15524 N15534  12k TC=0,0 
R_R5         N15548 N15554  1.2k TC=0,0 
D_D6         0 N15534 Dbreak 
V_V4         0 N15554 12Vdc
D_D5         N15534 N15548 Dbreak 
V_V5         N15524 0 12Vdc
D_D7         VIN VOUT Dbreak 
R_R6         0 VOUT  1k TC=0,0 
V_V6         VIN 0  AC 0
+SIN -1 2.5 100 0 0 0

**** RESUMING lab5_1.cir ****
.END

**** 09/07/21 15:11:23 ****** PSpice Lite (October 2012) ****** ID# 10813 ****

 ** Profile: "SCHEMATIC1-lab5_1"  [ C:\Users\daxda\OneDrive\Documentos\Universidad\Dispositivos electronicos\laboratorios\lab5_218038


 ****     Diode MODEL PARAMETERS


******************************************************************************




               Dbreak          
          IS    4.277000E-09 
           N    1.839        



          JOB CONCLUDED

**** 09/07/21 15:11:23 ****** PSpice Lite (October 2012) ****** ID# 10813 ****

 ** Profile: "SCHEMATIC1-lab5_1"  [ C:\Users\daxda\OneDrive\Documentos\Universidad\Dispositivos electronicos\laboratorios\lab5_218038


 ****     JOB STATISTICS SUMMARY


******************************************************************************



  Total job time (using Solver 1)   =         .03
